-------------------------------------------------------
          Amber 18 SANDER                              2018
          -------------------------------------------------------

  [-O]verwriting output

File Assignments:

 Here is the input file:

Production
 &cntrl
  imin=0,
  ntx=5,
  irest=1,
  nstlim=30000,
  dt=0.002,
  ntf=2,
  ntc=2,
  temp0=300.0,
  ntpr=100,
  ntwx=100,
  cut=8.0,
  ntb=2,
  ntp=1,
  ntt=3,
  gamma_ln=2.0,
  ig=-1,
 /

--------------------------------------------------------------------------------
   1.  RESOURCE   USE:
--------------------------------------------------------------------------------

 getting box info from netcdf restart file
 NATOM  =    1912 NTYPES =       9 NBONH =    1902 MBONA  =       9
 NTHETH =      25 MTHETA =      11 NPHIH =      43 MPHIA  =      24
 NHPARM =       0 NPARM  =       0 NNB   =    2619 NRES   =     633
 NBONA  =       9 NTHETA =      11 NPHIA =      24 NUMBND =      13
 NUMANG =      21 NPTRA  =      20 NATYP =      10 NPHB   =       1
 IFBOX  =       1 NMXRS  =      10 IFCAP =       0 NEXTRA =       0
 NCOPY  =       0

     BOX TYPE: RECTILINEAR
Note: ig = -1. Setting random seed to    93518 based on wallclock time in microseconds.

--------------------------------------------------------------------------------
   2.  CONTROL  DATA  FOR  THE  RUN
--------------------------------------------------------------------------------

ACE

General flags:
     imin    =       0, nmropt  =       0

Nature and format of input:
     ntx     =       5, irest   =       1, ntrx    =       1

Nature and format of output:
     ntxo    =       2, ntpr    =     100, ntrx    =       1, ntwr    =   30000
     iwrap   =       0, ntwx    =     100, ntwv    =       0, ntwe    =       0
     ioutfm  =       1, ntwprt  =       0, idecomp =       0, rbornstat=      0

Potential function:
     ntf     =       2, ntb     =       2, igb     =       0, nsnb    =      25
     ipol    =       0, gbsa    =       0, iesp    =       0
     dielc   =   1.00000, cut     =   8.00000, intdiel =   1.00000

Frozen or restrained atoms:
     ibelly  =       0, ntr     =       0

Molecular dynamics:
     nstlim  =     30000, nscm    =      1000, nrespa  =         1
     t       =   0.00000, dt      =   0.00200, vlimit  =  20.00000

Langevin dynamics temperature regulation:
     ig      =   93518
     temp0   = 300.00000, tempi   =   0.00000, gamma_ln=   2.00000

Pressure regulation:
     ntp     =       1
     pres0   =   1.00000, comp    =  44.60000, taup    =   1.00000

SHAKE:
     ntc     =       2, jfastw  =       0
     tol     =   0.00001

Ewald parameters:
     verbose =       0, ew_type =       0, nbflag  =       1, use_pme =       1
     vdwmeth =       1, eedmeth =       1, netfrc  =       1
     Box X =   31.398   Box Y =   34.100   Box Z =   29.273
     Alpha =   90.000   Beta  =   90.000   Gamma =   90.000
     NFFT1 =   32       NFFT2 =   36       NFFT3 =   30
     Cutoff=    8.000   Tol   =0.100E-04
     Ewald Coefficient =  0.34864
     Interpolation order =    4

--------------------------------------------------------------------------------
   3.  ATOMIC COORDINATES AND VELOCITIES
--------------------------------------------------------------------------------

ACE
 begin time read from input coords =    20.000 ps

 Number of triangulated 3-point waters found:      630

     Sum of charges from parm topology file =  -0.00000000
     Forcing neutrality...

--------------------------------------------------------------------------------
   4.  RESULTS
 NSTEP =      100   TIME(PS) =      20.200  TEMP(K) =   294.10  PRESS =  -601.0
 Etot   =     -4550.4953  EKtot   =      1120.3712  EPtot      =     -5670.8665
 BOND   =         4.2827  ANGLE   =         7.4678  DIHED      =        13.9034
 1-4 NB =         3.3091  1-4 EEL =        43.9316  VDWAALS    =       857.3307
 EELEC  =     -6601.0918  EHBOND  =         0.0000  RESTRAINT  =         0.0000
 EKCMT  =       553.5262  VIRIAL  =       957.5304  VOLUME     =     31135.8675
                                                    Density    =         0.6130
 Ewald error estimate:   0.1695E-03
 ------------------------------------------------------------------------------

      A V E R A G E S   O V E R   30000 S T E P S

 NSTEP =    30000   TIME(PS) =      80.000  TEMP(K) =   300.37  PRESS =  -178.1
 Etot   =     -4816.8645  EKtot   =      1144.2513  EPtot      =     -5961.1158
 BOND   =         3.2650  ANGLE   =         9.3412  DIHED      =        11.8535
 1-4 NB =         3.4632  1-4 EEL =        45.2477  VDWAALS    =       880.1607
 EELEC  =     -6914.4471  EHBOND  =         0.0000  RESTRAINT  =         0.0000
 EKCMT  =       567.5312  VIRIAL  =       663.3585  VOLUME     =     21481.9553
                                                    Density    =         0.9081
 Ewald error estimate:   0.2080E-03
 ------------------------------------------------------------------------------

      R M S  F L U C T U A T I O N S

 NSTEP =    30000   TIME(PS) =      80.000  TEMP(K) =     6.96  PRESS =   429.9
 Etot   =       131.5293  EKtot   =        26.5105  EPtot      =       127.6906
 BOND   =         1.5218  ANGLE   =         2.4536  DIHED      =         1.4363
 1-4 NB =         0.8053  1-4 EEL =         1.8990  VDWAALS    =        36.2968
 EELEC  =       143.0122  EHBOND  =         0.0000  RESTRAINT  =         0.0000
 EKCMT  =        18.7133  VIRIAL  =       206.4450  VOLUME     =      3490.0052
                                                    Density    =         0.1211
 Ewald error estimate:   0.1583E-03
 ------------------------------------------------------------------------------
